Version 4
SHEET 1 2548 1364
WIRE 1408 -256 -160 -256
WIRE -160 -128 -160 -256
WIRE -160 -96 -160 -128
WIRE -128 -96 -160 -96
WIRE -96 -96 -128 -96
WIRE -16 -96 -96 -96
WIRE 288 -96 240 -96
WIRE 336 -96 288 -96
WIRE 400 -96 336 -96
WIRE -96 16 -96 -32
WIRE 112 16 112 0
WIRE 112 16 -96 16
WIRE 336 16 336 -32
WIRE 336 16 112 16
WIRE 112 32 112 16
WIRE 400 96 400 -96
WIRE 352 128 64 128
WIRE 384 128 352 128
WIRE 400 128 400 96
WIRE 400 128 384 128
WIRE 688 128 400 128
WIRE 1408 192 1408 -256
WIRE 1536 192 1408 192
WIRE 1408 224 1408 192
WIRE -128 256 -176 256
WIRE -96 256 -128 256
WIRE 16 256 -16 256
WIRE 496 256 464 256
WIRE 624 256 576 256
WIRE 64 336 64 128
WIRE 64 336 -48 336
WIRE 688 336 688 128
WIRE 688 336 544 336
WIRE -48 368 -48 336
WIRE 544 368 544 336
WIRE -128 384 -128 256
WIRE -80 384 -128 384
WIRE 464 384 464 256
WIRE 512 384 464 384
WIRE 16 400 16 256
WIRE 16 400 -16 400
WIRE 64 400 16 400
WIRE 352 400 128 400
WIRE 464 400 464 384
WIRE 464 400 432 400
WIRE 624 400 624 256
WIRE 624 400 576 400
WIRE 944 400 624 400
WIRE 1392 400 944 400
WIRE -80 416 -128 416
WIRE 512 416 464 416
WIRE 1472 432 1472 400
WIRE 464 544 464 416
WIRE 464 544 432 544
WIRE 512 544 464 544
WIRE -128 576 -128 416
WIRE -128 576 -176 576
WIRE -96 576 -128 576
WIRE 16 576 16 560
WIRE 16 576 -16 576
WIRE 48 576 16 576
WIRE 464 576 464 544
WIRE 16 608 16 576
WIRE 464 704 464 656
WIRE 16 736 16 688
WIRE 464 736 464 704
WIRE 464 736 256 736
WIRE 16 848 16 736
WIRE 176 848 16 848
WIRE 224 848 176 848
WIRE 256 848 256 736
WIRE 256 848 224 848
WIRE 288 848 256 848
WIRE 336 848 288 848
WIRE 224 912 176 912
WIRE 336 912 288 912
WIRE 368 912 336 912
WIRE 256 960 256 848
WIRE 368 1072 368 912
WIRE 368 1072 320 1072
WIRE 400 1072 368 1072
WIRE 256 1216 256 1184
WIRE 304 1216 256 1216
WIRE 368 1216 368 1072
WIRE 256 1264 256 1216
WIRE 1536 1264 1536 192
WIRE 1536 1264 256 1264
FLAG 1408 304 0
FLAG 112 32 0
FLAG -400 256 0
FLAG 400 1072 0
FLAG 1472 432 0
FLAG 288 -160 0
FLAG -400 576 0
FLAG 544 432 0
FLAG -48 432 0
FLAG 384 192 0
FLAG 464 96 0
FLAG 352 64 0
FLAG 16 496 0
FLAG 128 576 0
FLAG 368 544 0
FLAG 592 544 0
FLAG 176 912 0
FLAG 192 1216 0
FLAG -224 -128 0
FLAG -128 -160 0
FLAG 128 336 0
FLAG 752 336 0
FLAG 80 736 0
FLAG 528 704 0
FLAG 944 400 Vout
SYMBOL OpAmps\\MAX40079 -48 336 R0
WINDOW 3 -62 125 Left 2
SYMATTR InstName U1
SYMBOL OpAmps\\MAX40079 544 336 R0
WINDOW 3 -54 133 Left 2
SYMATTR InstName U2
SYMBOL Misc\\battery 1408 208 R0
WINDOW 123 0 0 Left 0
WINDOW 39 0 0 Left 0
SYMATTR InstName V1
SYMATTR Value 5
SYMBOL polcap -112 -96 R0
SYMATTR InstName C1
SYMATTR Value 47µF
SYMATTR SpiceLine V=10
SYMBOL polcap 64 416 R270
WINDOW 0 -52 30 VTop 2
WINDOW 3 0 32 VBottom 2
SYMATTR InstName C3
SYMATTR Value 47µ
SYMATTR SpiceLine V=10
SYMBOL res 448 384 R90
WINDOW 0 0 56 VBottom 2
WINDOW 3 32 56 VTop 2
SYMATTR InstName R1
SYMATTR Value 1000
SYMBOL res 592 240 R90
WINDOW 0 32 -9 VBottom 2
WINDOW 3 32 56 VTop 2
SYMATTR InstName R2
SYMATTR Value 20k
SYMBOL res 0 240 R90
WINDOW 0 0 56 VBottom 2
WINDOW 3 32 56 VTop 2
SYMATTR InstName R3
SYMATTR Value 22k
SYMBOL res -160 240 R90
WINDOW 0 0 56 VBottom 2
WINDOW 3 32 56 VTop 2
SYMATTR InstName R4
SYMATTR Value 1000
SYMBOL polcap -320 272 R270
WINDOW 0 32 32 VTop 2
WINDOW 3 0 32 VBottom 2
SYMATTR InstName C4
SYMATTR Value 47µ
SYMBOL res 1488 384 R90
WINDOW 0 0 56 VBottom 2
WINDOW 3 32 56 VTop 2
SYMATTR InstName R5
SYMATTR Value 150k
SYMBOL cap 272 -160 R0
SYMATTR InstName C9
SYMATTR Value 10n
SYMBOL cap -144 -160 R0
SYMATTR InstName C10
SYMATTR Value 1µ
SYMBOL PowerProducts\\LT1117-3.3 112 -96 R0
SYMATTR InstName U4
SYMBOL References\\LT6654-3 256 1072 R270
SYMATTR InstName U5
SYMBOL cap 368 1200 R90
WINDOW 0 0 32 VBottom 2
WINDOW 3 32 32 VTop 2
SYMATTR InstName C7
SYMATTR Value 10µ
SYMBOL res 0 560 R90
WINDOW 0 0 56 VBottom 2
WINDOW 3 32 56 VTop 2
SYMATTR InstName R8
SYMATTR Value 22k
SYMBOL res -160 560 R90
WINDOW 0 0 56 VBottom 2
WINDOW 3 32 56 VTop 2
SYMATTR InstName R9
SYMATTR Value 1000
SYMBOL Misc\\signal -304 256 R90
WINDOW 123 24 132 Left 2
WINDOW 39 0 0 Left 0
WINDOW 0 39 62 Left 2
SYMATTR Value2 AC 0.0015 0
SYMATTR InstName AC1
SYMATTR Value SINE(0.7 0.0015 22000 0 0 180)
SYMBOL Misc\\signal -304 576 R90
WINDOW 123 24 132 Left 2
WINDOW 39 0 0 Left 0
WINDOW 0 48 59 Left 2
SYMATTR Value2 AC 0.0015 180
SYMATTR InstName AC2
SYMATTR Value SINE(0.7 0.0015 22000)
SYMBOL polcap -320 592 R270
WINDOW 0 32 32 VTop 2
WINDOW 3 0 32 VBottom 2
SYMATTR InstName C11
SYMATTR Value 47µ
SYMBOL cap 464 80 R90
WINDOW 0 0 32 VBottom 2
WINDOW 3 32 32 VTop 2
SYMATTR InstName C5
SYMATTR Value 10µ
SYMBOL cap 368 128 R0
SYMATTR InstName C12
SYMATTR Value 100µ
SYMBOL cap 336 64 R0
SYMATTR InstName C13
SYMATTR Value 1µ
SYMBOL res 0 592 R0
SYMATTR InstName R11
SYMATTR Value 10k
SYMBOL res 144 560 R90
WINDOW 0 0 56 VBottom 2
WINDOW 3 32 56 VTop 2
SYMATTR InstName R12
SYMATTR Value 10k
SYMBOL cap 0 496 R0
SYMATTR InstName C17
SYMATTR Value 10µ
SYMBOL res 448 560 R0
SYMATTR InstName R14
SYMATTR Value 10k
SYMBOL res 608 528 R90
WINDOW 0 0 56 VBottom 2
WINDOW 3 32 56 VTop 2
SYMATTR InstName R16
SYMATTR Value 10k
SYMBOL cap 432 528 R90
WINDOW 0 0 32 VBottom 2
WINDOW 3 32 32 VTop 2
SYMATTR InstName C20
SYMATTR Value 10µ
SYMBOL cap 272 848 R0
SYMATTR InstName C6
SYMATTR Value 0.1µ
SYMBOL cap 208 848 R0
SYMATTR InstName C8
SYMATTR Value 1µ
SYMBOL cap 320 848 R0
SYMATTR InstName C14
SYMATTR Value 0.01µ
SYMBOL cap 160 848 R0
SYMATTR InstName C15
SYMATTR Value 4.7µ
SYMBOL cap 256 1200 R90
WINDOW 0 0 32 VBottom 2
WINDOW 3 32 32 VTop 2
SYMATTR InstName C21
SYMATTR Value 0.1µ
SYMBOL cap -160 -144 R90
WINDOW 0 0 32 VBottom 2
WINDOW 3 32 32 VTop 2
SYMATTR InstName C22
SYMATTR Value 0.1µ
SYMBOL cap 320 -96 R0
SYMATTR InstName C2
SYMATTR Value 10µ
SYMBOL cap 752 320 R90
WINDOW 0 0 32 VBottom 2
WINDOW 3 32 32 VTop 2
SYMATTR InstName C23
SYMATTR Value 0.1µ
SYMBOL cap 128 320 R90
WINDOW 0 0 32 VBottom 2
WINDOW 3 32 32 VTop 2
SYMATTR InstName C24
SYMATTR Value 0.1µ
SYMBOL cap 80 720 R90
WINDOW 0 0 32 VBottom 2
WINDOW 3 32 32 VTop 2
SYMATTR InstName C25
SYMATTR Value 1µ
SYMBOL cap 528 688 R90
WINDOW 0 0 32 VBottom 2
WINDOW 3 32 32 VTop 2
SYMATTR InstName C26
SYMATTR Value 1µ
TEXT -328 200 Left 2 ;Dif gain of 10/1=10.
TEXT 464 216 Left 2 ;R2 VARIABLE.
TEXT -336 168 Left 2 ;Fix gain of differential (figure out which gain suitable.)
TEXT -456 1272 Left 2 !.ac oct 5 1 1000000
TEXT 112 712 Left 2 ;Ensure bidirectional lowpass
TEXT -456 1208 Left 2 ;.option plotwinsize=0
